outputs/ieee_14_barras/network/ieee_14_barras_base.pwf
TITU
VALIDACAO IEEE 30 - MODELAGEM VIA TAP CHANGER
DBAR
(Num)OETGb(    nome    )Gl( V)( A)( Pg)( Qg)( Qn)( Qm)(Bc  )( Pl)( Ql)
    0 L2 A1            1060   0.0  232.3  -16.6    0.0   10.0    0.0    0.0    0.0
    1 L1 A2            1044  -5.0   40.0   43.5  -40.0   50.0    0.0   21.7   12.7
    2 L1 A3            1010 -12.7    0.0   25.0    0.0   40.0    0.0   94.2   19.0
    3 L  A4            1017 -10.3    0.0    0.0    0.0    0.0    0.0   47.8   -3.9
    4 L  A5            1019  -8.8    0.0    0.0    0.0    0.0    0.0    7.6    1.6
    5 L1 A6            1070 -14.2    0.0   12.7   -6.0   24.0    0.0   11.2    7.5
    6 L  A7            1061 -13.4    0.0    0.0    0.0    0.0    0.0    0.0    0.0
    7 L1 A8            1089 -13.4    0.0   17.6   -6.0   24.0    0.0    0.0    0.0
    8 L  A9            1055 -14.9    0.0    0.0    0.0    0.0   19.0   29.5   16.6
    9 L  A10           1051 -15.1    0.0    0.0    0.0    0.0    0.0    9.0    5.8
   10 L  A11           1056 -14.8    0.0    0.0    0.0    0.0    0.0    3.5    1.8
   11 L  A12           1055 -15.1    0.0    0.0    0.0    0.0    0.0    6.1    1.6
   12 L  A13           1050 -15.2    0.0    0.0    0.0    0.0    0.0   13.5    5.8
   13 L  A14           1035 -16.0    0.0    0.0    0.0    0.0    0.0   14.9    5.0
DLIN
(De )d O d(Pa )NcEP ( R% )( X% )(Mvar)(Tap)(Tmn)(Tmx)(Phs)(Bc  )(Cn)(Ce)Ns
    0     1   1        1.94   5.92   5.28
    0     4   1        5.40  22.30   4.92
    1     2   1        4.70  19.80   4.38
    1     3   1        5.81  17.63   3.40
    1     4   1        5.70  17.39   3.46
    2     3   1        6.70  17.10   1.28
    3     4   1        1.33   4.21   0.00
    5    10   1        9.50  19.89   0.00
    5    11   1       12.29  25.58   0.00
    5    12   1        6.62  13.03   0.00
    8     9   1        3.18   8.45   0.00
    8    13   1       12.71  27.04   0.00
    9    10   1        8.21  19.21   0.00
   11    12   1       22.09  19.99   0.00
   12    13   1       17.09  34.80   0.00
    3     6   1        0.00 2070.29   0.00  0.978
    3     8   1        0.00 5506.18   0.00  0.969
    4     5   1        0.00 2495.00   0.00  0.932
    6     7   1        0.00 1743.88   0.00  1.000
    6     8   1        0.00 1089.10   0.00  1.000
99999
FIM
